
FoamFile
{
    version     2.0;
    format      ascii;
    arch        "LSB;label=32;scalar=64";
    class       dictionary;
    location    "system";
    object      createPatchDict;
}

pointSync true;

patches
(
    {
        name vent;
        patchInfo
        {
            type patch;
        }
        constructFrom set;
        set wallsLid_faces;
    }
);

