FoamFile
{
    version     2.0;
    format      ascii;
    class       dictionary;
    object      mapFieldsDict;
}
// * * * * * * * * * * * * * * * * * * * * * * * * * * * * * * * * * * * * * //

// List of pairs of target/source patches for mapping
patchMap
(
);
cuttingPatches
(
);
