/*--------------------------------*- C++ -*----------------------------------*\
| =========                 |                                                 |
| \\      /  F ield         | OpenFOAM: The Open Source CFD Toolbox           |
|  \\    /   O peration     | Version:  v2312                                 |
|   \\  /    A nd           | Website:  www.openfoam.com                      |
|    \\/     M anipulation  |                                                 |
\*---------------------------------------------------------------------------*/

FoamFile
{
    version     2.0;
    format      ascii;
    class       vectorField;
    object      coalCloud1Positions;
}
// * * * * * * * * * * * * * * * * * * * * * * * * * * * * * * * * * * * * * //

(
(0.54 1.93 0.0)
(0.13 1.09 0.0)
(0.35 0.61 0.0)
(0.13 0.79 0.0)
(0.73 1.19 0.0)
(0.84 0.11 0.0)
(0.35 1.38 0.0)
(0.53 1.69 0.0)
(0.49 0.91 0.0)
(0.76 1.32 0.0)
(0.78 0.45 0.0)
(0.98 1.93 0.0)
(0.33 1.24 0.0)
(0.42 1.8 0.0)
(1.0 1.73 0.0)
(0.73 1.61 0.0)
(0.02 1.9 0.0)
(0.5 1.63 0.0)
(0.49 0.68 0.0)
(0.57 0.47 0.0)
(0.03 0.91 0.0)
(0.69 0.18 0.0)
(0.42 0.11 0.0)
(0.6 1.48 0.0)
(0.19 0.07 0.0)
(0.0 0.47 0.0)
(0.5 1.21 0.0)
(0.45 0.23 0.0)
(0.82 1.0 0.0)
(0.38 1.92 0.0)
(0.6 0.68 0.0)
(0.74 1.74 0.0)
(0.33 0.38 0.0)
(0.01 1.7 0.0)
(0.66 0.36 0.0)
(0.44 1.2 0.0)
(0.58 1.86 0.0)
(0.97 1.95 0.0)
(0.5 1.61 0.0)
(0.95 0.46 0.0)
(0.66 1.06 0.0)
(0.49 1.6 0.0)
(0.03 1.91 0.0)
(0.17 0.39 0.0)
(0.92 1.14 0.0)
(0.78 0.56 0.0)
(0.89 0.76 0.0)
(0.57 1.63 0.0)
(0.85 0.82 0.0)
(0.83 1.23 0.0)
(0.31 1.03 0.0)
(0.78 0.32 0.0)
(0.44 0.17 0.0)
(0.36 1.9 0.0)
(0.01 0.05 0.0)
(0.31 1.2 0.0)
(0.19 0.34 0.0)
(0.34 0.13 0.0)
(0.61 0.14 0.0)
(0.23 0.86 0.0)
(0.6 1.62 0.0)
(0.38 0.93 0.0)
(0.46 1.31 0.0)
(0.39 0.62 0.0)
(0.63 1.34 0.0)
(0.46 1.89 0.0)
(0.28 1.98 0.0)
(0.44 0.43 0.0)
(0.05 0.49 0.0)
(0.14 1.75 0.0)
(0.16 1.94 0.0)
(0.57 1.97 0.0)
(0.41 0.14 0.0)
(0.2 1.65 0.0)
(0.72 0.3 0.0)
(0.28 1.31 0.0)
(0.44 1.11 0.0)
(0.28 1.95 0.0)
(0.7 1.2 0.0)
(0.9 0.93 0.0)
(0.82 1.46 0.0)
(0.95 1.14 0.0)
(0.75 1.31 0.0)
(0.71 0.75 0.0)
(0.19 0.03 0.0)
(0.45 0.76 0.0)
(0.04 1.84 0.0)
(0.94 1.56 0.0)
(0.64 1.46 0.0)
(0.69 0.35 0.0)
(0.07 0.24 0.0)
(0.45 0.64 0.0)
(0.62 0.85 0.0)
(0.47 0.63 0.0)
(0.08 0.64 0.0)
(0.75 1.42 0.0)
(0.85 0.29 0.0)
(0.38 0.95 0.0)
(0.33 0.09 0.0)
(0.57 0.21 0.0)
(0.84 1.12 0.0)
(0.85 0.98 0.0)
(0.84 0.26 0.0)
(0.84 1.36 0.0)
(0.08 1.47 0.0)
(0.75 0.43 0.0)
(0.67 1.72 0.0)
(0.07 0.14 0.0)
(0.61 0.95 0.0)
(0.35 0.03 0.0)
(0.18 0.02 0.0)
(0.33 0.45 0.0)
(0.52 1.56 0.0)
(0.39 1.95 0.0)
(0.02 1.05 0.0)
(0.22 0.01 0.0)
(0.55 0.36 0.0)
(0.26 0.74 0.0)
(0.92 0.43 0.0)
(0.1 1.19 0.0)
(0.51 0.79 0.0)
(0.25 1.54 0.0)
(0.16 0.44 0.0)
(0.21 1.35 0.0)
(0.39 1.9 0.0)
(0.53 0.71 0.0)
(0.24 0.45 0.0)
(0.53 1.29 0.0)
(0.2 0.39 0.0)
(0.61 1.29 0.0)
(0.47 0.16 0.0)
(0.0 0.52 0.0)
(0.73 1.43 0.0)
(0.5 1.24 0.0)
(0.27 0.84 0.0)
(0.46 0.96 0.0)
(0.06 1.57 0.0)
(0.19 0.06 0.0)
(0.1 0.28 0.0)
(0.29 0.99 0.0)
(0.23 0.23 0.0)
(0.99 1.39 0.0)
(0.9 1.11 0.0)
(0.39 0.81 0.0)
(0.04 0.05 0.0)
(0.11 1.88 0.0)
(0.92 1.25 0.0)
(0.67 1.68 0.0)
(0.77 0.73 0.0)
(0.55 0.55 0.0)
(0.78 0.31 0.0)
(0.86 1.39 0.0)
(0.57 1.18 0.0)
(0.45 1.38 0.0)
(0.76 2.0 0.0)
(0.84 1.22 0.0)
(0.94 0.12 0.0)
(0.95 0.54 0.0)
(0.48 1.91 0.0)
(0.8 1.48 0.0)
(0.33 1.53 0.0)
(0.3 1.27 0.0)
(0.44 1.78 0.0)
(0.16 1.12 0.0)
(0.18 1.48 0.0)
(0.73 1.76 0.0)
(0.39 0.38 0.0)
(0.68 1.95 0.0)
(0.11 0.6 0.0)
(0.64 1.83 0.0)
(0.42 1.39 0.0)
(0.01 0.06 0.0)
(0.58 1.18 0.0)
(0.26 1.55 0.0)
(0.55 0.26 0.0)
(0.62 0.9 0.0)
(0.91 0.54 0.0)
(0.98 0.99 0.0)
(0.56 0.14 0.0)
(0.82 1.66 0.0)
(0.0 1.58 0.0)
(0.01 0.38 0.0)
(0.17 1.35 0.0)
(0.76 1.32 0.0)
(0.04 1.27 0.0)
(0.63 1.99 0.0)
(0.4 1.37 0.0)
(0.29 0.92 0.0)
(0.97 0.83 0.0)
(0.57 1.59 0.0)
(0.84 1.88 0.0)
(0.68 0.54 0.0)
(0.5 0.98 0.0)
(0.12 0.15 0.0)
(0.19 1.56 0.0)
(0.64 1.52 0.0)
(0.99 0.76 0.0)
(0.49 1.29 0.0)
(0.09 1.36 0.0)
(0.98 1.35 0.0)
(0.79 0.38 0.0)
(0.96 0.7 0.0)
(0.46 0.02 0.0)
(0.64 1.41 0.0)
(0.55 1.72 0.0)
(0.6 1.19 0.0)
(0.59 0.47 0.0)
(0.9 0.75 0.0)
(0.59 0.09 0.0)
(0.87 0.49 0.0)
(0.4 1.21 0.0)
(0.79 0.99 0.0)
(0.63 1.75 0.0)
(0.89 0.66 0.0)
(0.57 1.48 0.0)
(0.07 0.59 0.0)
(0.1 0.83 0.0)
(0.49 1.65 0.0)
(0.13 0.03 0.0)
(0.77 0.93 0.0)
(0.95 0.94 0.0)
(0.16 1.3 0.0)
(0.17 0.34 0.0)
(0.97 1.23 0.0)
(0.81 1.93 0.0)
(1.0 1.23 0.0)
(0.14 1.56 0.0)
(0.96 0.21 0.0)
(0.94 0.26 0.0)
(0.18 1.75 0.0)
(0.42 0.23 0.0)
(0.05 1.37 0.0)
(0.65 0.98 0.0)
(1.0 1.97 0.0)
(0.48 1.89 0.0)
(0.52 0.42 0.0)
(0.25 1.54 0.0)
(0.43 1.01 0.0)
(0.8 1.38 0.0)
(0.08 1.77 0.0)
(0.45 1.32 0.0)
(0.79 1.43 0.0)
(0.99 1.26 0.0)
(0.92 0.1 0.0)
(0.8 1.34 0.0)
(0.6 1.41 0.0)
(0.16 0.61 0.0)
(0.13 1.47 0.0)
(0.63 0.78 0.0)
(0.71 1.23 0.0)
(0.07 0.28 0.0)
(0.07 1.74 0.0)
(0.69 1.3 0.0)
(0.7 0.51 0.0)
(0.18 0.54 0.0)
(0.07 1.06 0.0)
(0.16 1.54 0.0)
(0.58 0.78 0.0)
(0.77 0.39 0.0)
(0.12 0.19 0.0)
(0.41 0.77 0.0)
(0.62 1.58 0.0)
(0.98 1.19 0.0)
(0.37 1.15 0.0)
(0.29 1.02 0.0)
(0.84 1.89 0.0)
(0.69 0.37 0.0)
(0.62 1.69 0.0)
(0.02 0.68 0.0)
(0.03 1.78 0.0)
(0.68 0.26 0.0)
(0.82 1.19 0.0)
(0.86 1.56 0.0)
(0.52 1.25 0.0)
(0.65 0.35 0.0)
(0.04 0.91 0.0)
(0.87 0.76 0.0)
(0.53 1.34 0.0)
(0.07 1.76 0.0)
(0.24 1.38 0.0)
(0.92 1.75 0.0)
(0.71 0.74 0.0)
(0.87 1.97 0.0)
(0.15 1.13 0.0)
(0.21 0.46 0.0)
(0.58 1.16 0.0)
(0.99 1.23 0.0)
(0.8 1.24 0.0)
(0.71 0.21 0.0)
(0.88 0.47 0.0)
(0.28 0.85 0.0)
(0.09 0.99 0.0)
(0.64 1.78 0.0)
(0.0 0.22 0.0)
(0.36 1.09 0.0)
(0.38 0.63 0.0)
(0.02 1.14 0.0)
(0.41 0.63 0.0)
(0.79 1.54 0.0)
(0.01 1.91 0.0)
(0.9 1.72 0.0)
(0.0 1.3 0.0)
(0.78 1.69 0.0)
(0.96 0.16 0.0)
(0.78 0.01 0.0)
(0.6 1.75 0.0)
(0.95 1.7 0.0)
(0.81 1.38 0.0)
(0.58 1.88 0.0)
(0.35 0.38 0.0)
(0.51 1.47 0.0)
(0.52 0.47 0.0)
(0.3 1.65 0.0)
(0.59 1.91 0.0)
(0.83 0.64 0.0)
(0.68 0.87 0.0)
(0.26 1.47 0.0)
(0.88 0.44 0.0)
(0.6 0.85 0.0)
(0.32 1.52 0.0)
(0.68 0.15 0.0)
(0.81 1.8 0.0)
(0.13 0.05 0.0)
(0.12 0.06 0.0)
(0.22 0.2 0.0)
(0.1 1.37 0.0)
(0.75 1.72 0.0)
(0.91 0.49 0.0)
(0.24 1.87 0.0)
(0.9 0.27 0.0)
(0.1 1.1 0.0)
(0.26 1.78 0.0)
(0.87 1.35 0.0)
(0.71 0.28 0.0)
(0.38 0.73 0.0)
(0.87 1.03 0.0)
(0.43 1.97 0.0)
(0.74 0.49 0.0)
(0.82 0.27 0.0)
(0.03 1.93 0.0)
(0.21 1.47 0.0)
(0.48 0.57 0.0)
(0.96 0.79 0.0)
(0.98 1.81 0.0)
(0.12 1.99 0.0)
(0.27 0.09 0.0)
(0.86 0.91 0.0)
(0.8 1.0 0.0)
(0.29 0.75 0.0)
(0.05 0.33 0.0)
(0.16 1.95 0.0)
(0.42 1.0 0.0)
(0.7 1.2 0.0)
(0.87 1.36 0.0)
(0.75 0.85 0.0)
(0.74 1.54 0.0)
(0.17 1.78 0.0)
(0.75 1.01 0.0)
(0.91 0.21 0.0)
(0.24 0.55 0.0)
(0.58 0.49 0.0)
(0.17 1.19 0.0)
(0.9 1.59 0.0)
(0.02 1.69 0.0)
(0.1 1.26 0.0)
(0.33 0.01 0.0)
(0.16 1.95 0.0)
(0.35 0.97 0.0)
(0.98 0.52 0.0)
(0.2 0.87 0.0)
(0.54 0.18 0.0)
(0.71 1.13 0.0)
(0.85 1.54 0.0)
(0.7 0.67 0.0)
(0.86 0.65 0.0)
(0.98 1.47 0.0)
(0.95 1.21 0.0)
(0.2 0.13 0.0)
(0.61 1.76 0.0)
(0.19 0.94 0.0)
(0.79 1.23 0.0)
(0.01 1.93 0.0)
(0.64 1.84 0.0)
(0.84 1.25 0.0)
(0.69 0.06 0.0)
(0.82 1.19 0.0)
(0.71 1.32 0.0)
(0.83 0.72 0.0)
(0.17 0.22 0.0)
(0.51 1.49 0.0)
(0.29 0.25 0.0)
(0.17 0.2 0.0)
(0.38 1.01 0.0)
(0.52 0.78 0.0)
(0.08 1.32 0.0)
(0.6 1.92 0.0)
(0.46 1.91 0.0)
(0.22 1.19 0.0)
(0.28 1.43 0.0)
(0.49 0.89 0.0)
(0.9 0.34 0.0)
(0.37 1.36 0.0)
(0.76 1.99 0.0)
(0.41 1.31 0.0)
(0.31 1.2 0.0)
(0.8 1.97 0.0)
(0.33 1.05 0.0)
(0.65 1.88 0.0)
(0.38 0.67 0.0)
(0.25 0.96 0.0)
(0.98 1.82 0.0)
(0.83 1.16 0.0)
(0.69 0.97 0.0)
(0.05 1.94 0.0)
(0.43 1.2 0.0)
(0.89 0.32 0.0)
(0.65 0.38 0.0)
(0.54 1.78 0.0)
(0.97 1.53 0.0)
(0.25 1.07 0.0)
(0.64 1.39 0.0)
(0.6 1.01 0.0)
(0.57 0.49 0.0)
(0.87 1.92 0.0)
(0.39 0.31 0.0)
(0.25 0.03 0.0)
(0.38 1.96 0.0)
(0.74 0.31 0.0)
(0.89 1.47 0.0)
(0.33 0.01 0.0)
(0.87 1.0 0.0)
(0.14 1.53 0.0)
(0.13 1.47 0.0)
(0.83 0.39 0.0)
(0.2 0.15 0.0)
(0.44 0.45 0.0)
(0.39 1.02 0.0)
(0.37 0.58 0.0)
(0.72 0.03 0.0)
(0.66 1.25 0.0)
(0.37 1.54 0.0)
(0.64 0.01 0.0)
(0.4 0.93 0.0)
(0.1 0.03 0.0)
(0.18 0.2 0.0)
(0.95 0.9 0.0)
(0.35 1.2 0.0)
(0.97 1.44 0.0)
(0.31 0.11 0.0)
(0.54 1.74 0.0)
(0.22 1.28 0.0)
(0.06 1.81 0.0)
(0.87 0.77 0.0)
(0.82 1.22 0.0)
(0.89 1.01 0.0)
(0.9 1.37 0.0)
(0.48 1.13 0.0)
(0.22 0.05 0.0)
(0.99 0.36 0.0)
(0.16 1.1 0.0)
(0.15 1.62 0.0)
(0.62 1.36 0.0)
(0.84 0.48 0.0)
(0.57 0.19 0.0)
(0.15 1.2 0.0)
(0.19 0.2 0.0)
(0.01 0.12 0.0)
(0.59 1.43 0.0)
(0.72 1.85 0.0)
(0.88 0.43 0.0)
(0.08 0.85 0.0)
(0.74 1.29 0.0)
(0.54 0.41 0.0)
(0.77 1.67 0.0)
(0.17 0.97 0.0)
(0.15 1.97 0.0)
(0.96 1.01 0.0)
(0.56 1.18 0.0)
(0.31 0.93 0.0)
(0.79 1.03 0.0)
(0.08 0.35 0.0)
(0.34 1.3 0.0)
(0.52 0.84 0.0)
(0.3 0.26 0.0)
(0.43 1.36 0.0)
(0.22 1.83 0.0)
(0.82 1.17 0.0)
(0.77 1.47 0.0)
(0.48 0.49 0.0)
(0.61 1.42 0.0)
(0.94 1.53 0.0)
(0.55 1.75 0.0)
(0.73 1.49 0.0)
(0.45 1.26 0.0)
(0.68 1.43 0.0)
(0.74 0.65 0.0)
(0.74 0.82 0.0)
(0.28 0.16 0.0)
(0.57 0.14 0.0)
(0.86 1.69 0.0)
(0.6 0.38 0.0)
(0.77 0.26 0.0)
(0.69 1.4 0.0)
(0.91 1.84 0.0)
(0.8 0.8 0.0)
(0.45 1.01 0.0)
(0.94 1.02 0.0)
(0.04 0.99 0.0)
(0.13 0.68 0.0)
(0.09 0.83 0.0)
(0.03 0.17 0.0)
(0.7 1.67 0.0)
(0.92 0.13 0.0)
(0.07 1.0 0.0)
(0.1 1.38 0.0)
(0.55 1.28 0.0)
(0.8 0.94 0.0)
(0.47 0.84 0.0)
(0.09 0.52 0.0)
(0.91 1.52 0.0)
(0.04 0.32 0.0)
(0.16 0.65 0.0)
(0.38 0.82 0.0)
(0.12 1.02 0.0)
(0.74 1.79 0.0)
(0.63 0.69 0.0)
(0.11 0.13 0.0)
(0.53 0.83 0.0)
(0.3 0.09 0.0)
(0.08 1.22 0.0)
(0.77 1.87 0.0)
(0.45 0.02 0.0)
(0.28 0.7 0.0)
(0.08 1.48 0.0)
(0.24 0.78 0.0)
(0.82 0.3 0.0)
(0.91 1.4 0.0)
(0.08 2.0 0.0)
(0.5 0.86 0.0)
(0.48 1.35 0.0)
(0.74 1.15 0.0)
(0.8 1.46 0.0)
(0.92 0.28 0.0)
(0.66 0.55 0.0)
(0.75 1.85 0.0)
(0.58 1.36 0.0)
(0.11 0.57 0.0)
(0.89 1.5 0.0)
(0.59 0.59 0.0)
(0.68 0.87 0.0)
(0.68 1.47 0.0)
(0.58 1.85 0.0)
(0.62 0.89 0.0)
(0.75 1.36 0.0)
(0.48 2.0 0.0)
(0.16 0.19 0.0)
(0.48 1.96 0.0)
(0.31 0.25 0.0)
(0.41 0.12 0.0)
(0.27 1.95 0.0)
(0.63 0.46 0.0)
(0.15 1.03 0.0)
(0.05 0.84 0.0)
(0.44 1.06 0.0)
(0.12 1.95 0.0)
(0.61 0.44 0.0)
(0.72 1.22 0.0)
(0.18 2.0 0.0)
(0.99 0.19 0.0)
(0.72 1.88 0.0)
(0.66 0.63 0.0)
(0.9 0.68 0.0)
(0.12 1.03 0.0)
(0.68 1.05 0.0)
(0.8 0.44 0.0)
(0.91 0.63 0.0)
(0.85 0.32 0.0)
(0.12 0.98 0.0)
(0.81 0.27 0.0)
(0.71 0.08 0.0)
(0.77 1.4 0.0)
(0.74 1.53 0.0)
(0.09 0.44 0.0)
(0.85 0.49 0.0)
(0.53 0.57 0.0)
(0.33 1.04 0.0)
(0.71 0.39 0.0)
(0.1 1.33 0.0)
(0.15 1.66 0.0)
(0.18 1.98 0.0)
(0.19 0.68 0.0)
(0.47 1.41 0.0)
(0.95 0.49 0.0)
(0.86 1.49 0.0)
(0.93 1.13 0.0)
(0.87 1.0 0.0)
(0.92 1.78 0.0)
(0.35 1.16 0.0)
(0.54 1.29 0.0)
(0.09 1.8 0.0)
(0.99 0.72 0.0)
(0.99 1.19 0.0)
(0.97 1.27 0.0)
(0.89 1.0 0.0)
(0.56 0.93 0.0)
(0.67 0.58 0.0)
(0.22 0.48 0.0)
(0.24 0.67 0.0)
(0.47 0.85 0.0)
(0.15 1.49 0.0)
(0.65 0.01 0.0)
(0.36 0.71 0.0)
(0.17 1.26 0.0)
(0.57 1.84 0.0)
(0.37 1.87 0.0)
(0.35 1.72 0.0)
(0.87 1.08 0.0)
(0.49 0.89 0.0)
(0.3 0.63 0.0)
(0.71 1.59 0.0)
(0.38 1.58 0.0)
(0.22 1.08 0.0)
(0.37 1.04 0.0)
(0.13 0.57 0.0)
(0.37 1.0 0.0)
(0.8 0.03 0.0)
(0.54 1.64 0.0)
(0.68 1.36 0.0)
(0.84 0.68 0.0)
(0.36 1.29 0.0)
(0.14 1.36 0.0)
(0.4 0.33 0.0)
(0.77 0.85 0.0)
(0.23 1.74 0.0)
(0.71 1.41 0.0)
(0.17 0.04 0.0)
(0.81 0.53 0.0)
(0.42 0.85 0.0)
(0.73 1.09 0.0)
(0.18 0.45 0.0)
(0.51 0.29 0.0)
(0.59 1.68 0.0)
(0.79 1.53 0.0)
(0.62 1.41 0.0)
(0.05 0.26 0.0)
(0.12 1.23 0.0)
(0.3 1.92 0.0)
(0.91 0.99 0.0)
(0.33 1.28 0.0)
(0.49 0.86 0.0)
(0.87 1.95 0.0)
(0.58 0.7 0.0)
(0.47 0.9 0.0)
(0.24 1.75 0.0)
(0.27 0.4 0.0)
(0.6 1.45 0.0)
(0.48 1.63 0.0)
(0.32 1.59 0.0)
(0.51 0.52 0.0)
(0.21 1.3 0.0)
(0.6 0.87 0.0)
(0.97 0.88 0.0)
(0.66 0.83 0.0)
(0.37 0.72 0.0)
(0.29 1.84 0.0)
(0.9 0.64 0.0)
(0.61 1.42 0.0)
(0.79 1.98 0.0)
(0.74 1.5 0.0)
(0.23 0.26 0.0)
(0.24 1.52 0.0)
(0.1 0.61 0.0)
(0.41 1.48 0.0)
(0.23 1.26 0.0)
(0.55 1.15 0.0)
(0.03 0.72 0.0)
(0.19 1.13 0.0)
(0.09 1.13 0.0)
(0.0 0.13 0.0)
(0.77 0.16 0.0)
(0.31 1.26 0.0)
(0.42 1.76 0.0)
(0.9 1.62 0.0)
(0.61 0.07 0.0)
(0.15 0.88 0.0)
(0.87 0.54 0.0)
(0.94 1.62 0.0)
(0.99 0.75 0.0)
(0.26 1.99 0.0)
(0.51 1.12 0.0)
(0.92 1.35 0.0)
(0.21 1.37 0.0)
(0.57 0.61 0.0)
(0.04 0.19 0.0)
(0.47 1.49 0.0)
(0.12 0.66 0.0)
(0.2 1.98 0.0)
(0.44 0.16 0.0)
(0.82 0.18 0.0)
(0.3 1.55 0.0)
(0.81 1.57 0.0)
(0.81 0.94 0.0)
(0.98 0.55 0.0)
(0.06 0.11 0.0)
(0.22 1.37 0.0)
(0.39 0.68 0.0)
(0.67 1.53 0.0)
(0.27 0.16 0.0)
(0.94 1.55 0.0)
(0.03 0.0 0.0)
(0.44 1.46 0.0)
(0.27 1.24 0.0)
(0.86 1.87 0.0)
(0.37 1.66 0.0)
(0.45 0.38 0.0)
(0.72 0.12 0.0)
(0.83 0.15 0.0)
(0.71 0.89 0.0)
(0.48 0.87 0.0)
(0.64 0.25 0.0)
(0.42 1.3 0.0)
(0.73 1.33 0.0)
(0.94 1.44 0.0)
(0.63 1.03 0.0)
(0.51 0.14 0.0)
(0.39 1.03 0.0)
(0.23 1.02 0.0)
(0.56 1.11 0.0)
(0.23 0.82 0.0)
(0.35 0.29 0.0)
(0.02 0.09 0.0)
(0.64 0.63 0.0)
(0.28 1.02 0.0)
(0.76 1.61 0.0)
(0.41 1.63 0.0)
(0.4 0.25 0.0)
(0.33 1.46 0.0)
(0.54 0.48 0.0)
(0.17 1.11 0.0)
(0.49 0.97 0.0)
(0.18 1.57 0.0)
(0.5 0.64 0.0)
(0.49 1.61 0.0)
(0.87 1.01 0.0)
(0.08 0.11 0.0)
(0.6 1.11 0.0)
(0.03 0.14 0.0)
(0.43 0.62 0.0)
(0.32 0.73 0.0)
(0.18 0.48 0.0)
(0.09 1.03 0.0)
(0.6 0.43 0.0)
(0.35 0.26 0.0)
(0.92 0.69 0.0)
(0.64 1.02 0.0)
(0.86 0.43 0.0)
(0.26 0.15 0.0)
(0.51 1.01 0.0)
(0.81 0.71 0.0)
(0.09 1.06 0.0)
(0.44 1.81 0.0)
(0.85 0.87 0.0)
(0.64 0.66 0.0)
(0.19 1.1 0.0)
(0.52 0.61 0.0)
(0.18 0.15 0.0)
(0.21 0.52 0.0)
(0.28 1.4 0.0)
(0.15 0.63 0.0)
(0.65 0.82 0.0)
(0.45 0.27 0.0)
(0.95 0.21 0.0)
(0.39 0.37 0.0)
(0.05 0.06 0.0)
(0.27 1.89 0.0)
(0.56 1.43 0.0)
(0.83 1.09 0.0)
(0.82 1.73 0.0)
(0.38 0.96 0.0)
(0.13 1.45 0.0)
(0.52 1.33 0.0)
(0.74 0.67 0.0)
(0.88 0.49 0.0)
(0.56 1.16 0.0)
(0.35 1.99 0.0)
(0.2 1.46 0.0)
(0.44 1.17 0.0)
(0.2 1.4 0.0)
(0.71 1.43 0.0)
(0.81 1.66 0.0)
(0.17 0.39 0.0)
(0.29 1.09 0.0)
(0.85 1.09 0.0)
(0.92 1.05 0.0)
(0.72 0.8 0.0)
(0.84 0.68 0.0)
(0.88 0.03 0.0)
(0.98 0.32 0.0)
(0.53 0.53 0.0)
(0.2 0.78 0.0)
(0.11 0.58 0.0)
(0.52 1.47 0.0)
(0.43 0.29 0.0)
(0.05 0.46 0.0)
(0.2 0.14 0.0)
(0.53 0.02 0.0)
(0.12 1.09 0.0)
(0.74 0.51 0.0)
(0.22 1.54 0.0)
(0.93 0.09 0.0)
(0.14 0.16 0.0)
(0.02 1.38 0.0)
(0.04 1.45 0.0)
(0.96 1.44 0.0)
(0.57 1.22 0.0)
(0.46 0.97 0.0)
(0.46 1.69 0.0)
(0.38 0.58 0.0)
(0.31 1.67 0.0)
(0.13 1.68 0.0)
(0.28 0.63 0.0)
(0.57 1.36 0.0)
(0.03 0.58 0.0)
(0.48 1.99 0.0)
(0.82 1.85 0.0)
(0.89 1.47 0.0)
(0.69 1.43 0.0)
(0.5 1.68 0.0)
(0.24 0.67 0.0)
(0.55 1.2 0.0)
(0.76 0.18 0.0)
(0.23 0.47 0.0)
(0.08 0.2 0.0)
(0.56 0.88 0.0)
(0.36 1.02 0.0)
(0.9 0.54 0.0)
(0.06 0.07 0.0)
(0.88 1.87 0.0)
(0.79 1.25 0.0)
(0.01 0.21 0.0)
(0.21 0.75 0.0)
(0.61 1.51 0.0)
(0.57 0.49 0.0)
(0.48 1.34 0.0)
(0.25 0.09 0.0)
(0.84 0.52 0.0)
(0.51 1.64 0.0)
(0.81 1.88 0.0)
(0.38 0.86 0.0)
(0.02 1.97 0.0)
(0.62 0.31 0.0)
(0.98 1.92 0.0)
(0.25 1.54 0.0)
(0.2 1.11 0.0)
(0.41 1.64 0.0)
(0.77 0.6 0.0)
(0.4 0.25 0.0)
(0.77 1.46 0.0)
(0.68 1.06 0.0)
(0.28 0.04 0.0)
(0.23 0.03 0.0)
(0.54 0.73 0.0)
(0.3 1.05 0.0)
(0.06 0.8 0.0)
(0.64 1.2 0.0)
(0.24 1.21 0.0)
(0.9 1.32 0.0)
(0.96 1.1 0.0)
(0.2 0.22 0.0)
(0.62 1.44 0.0)
(0.78 1.12 0.0)
(0.4 0.27 0.0)
(0.89 0.38 0.0)
(0.19 1.39 0.0)
(0.8 1.23 0.0)
(0.5 0.44 0.0)
(0.17 1.13 0.0)
(0.16 0.23 0.0)
(0.53 1.93 0.0)
(0.86 0.42 0.0)
(0.25 1.2 0.0)
(0.43 1.38 0.0)
(0.9 1.3 0.0)
(0.64 1.22 0.0)
(0.51 0.81 0.0)
(0.82 1.28 0.0)
(0.42 0.66 0.0)
(0.89 1.23 0.0)
(0.1 1.59 0.0)
(0.89 1.61 0.0)
(0.33 0.73 0.0)
(0.83 1.09 0.0)
(0.02 1.79 0.0)
(0.43 1.04 0.0)
(0.85 0.34 0.0)
(0.02 0.37 0.0)
(0.19 0.19 0.0)
(0.25 1.83 0.0)
(0.65 0.04 0.0)
(0.54 0.52 0.0)
(0.36 1.94 0.0)
(0.35 0.81 0.0)
(0.23 0.08 0.0)
(0.37 1.89 0.0)
(0.89 1.89 0.0)
(0.62 0.55 0.0)
(0.36 0.58 0.0)
(0.15 0.93 0.0)
(0.39 1.66 0.0)
(0.33 1.79 0.0)
(0.77 0.2 0.0)
(0.3 1.25 0.0)
(0.08 1.91 0.0)
(0.11 0.35 0.0)
(0.84 1.97 0.0)
(0.56 1.22 0.0)
(0.22 1.25 0.0)
(0.65 1.25 0.0)
(0.28 1.42 0.0)
(0.88 1.05 0.0)
(0.86 1.25 0.0)
(0.95 0.04 0.0)
(0.86 0.97 0.0)
(0.83 0.57 0.0)
(0.51 0.38 0.0)
(0.01 0.29 0.0)
(0.39 0.42 0.0)
(0.77 0.81 0.0)
(0.78 0.87 0.0)
(0.74 1.54 0.0)
(0.42 0.02 0.0)
(0.74 0.14 0.0)
(0.05 0.86 0.0)
(0.57 1.77 0.0)
(0.11 1.99 0.0)
(0.82 0.91 0.0)
(0.19 0.55 0.0)
(0.19 0.95 0.0)
(0.25 0.77 0.0)
(0.77 0.12 0.0)
(0.95 1.34 0.0)
(0.46 0.22 0.0)
(0.58 1.43 0.0)
(0.36 0.67 0.0)
(0.89 0.37 0.0)
(0.33 0.82 0.0)
(0.47 0.18 0.0)
(0.26 1.15 0.0)
(0.4 1.62 0.0)
(0.09 0.85 0.0)
(0.76 1.29 0.0)
(0.01 0.02 0.0)
(0.66 0.92 0.0)
(0.3 1.23 0.0)
(0.66 1.23 0.0)
(0.18 0.28 0.0)
(0.83 1.84 0.0)
(0.79 1.46 0.0)
(0.51 0.15 0.0)
(0.2 0.38 0.0)
(0.15 0.72 0.0)
(0.78 0.14 0.0)
(0.08 1.23 0.0)
(0.03 0.57 0.0)
(0.14 1.88 0.0)
(0.11 0.81 0.0)
(0.89 1.43 0.0)
(0.38 1.92 0.0)
(0.34 0.43 0.0)
(0.94 1.22 0.0)
(0.88 0.43 0.0)
(0.99 1.93 0.0)
(0.88 0.14 0.0)
(0.33 1.62 0.0)
(0.11 0.53 0.0)
(0.72 1.56 0.0)
(0.88 0.23 0.0)
(0.69 1.96 0.0)
(0.7 0.5 0.0)
(0.15 1.13 0.0)
(0.09 0.54 0.0)
(0.99 0.8 0.0)
(0.29 0.38 0.0)
(0.39 0.6 0.0)
(0.02 1.37 0.0)
(0.27 0.19 0.0)
(0.26 1.09 0.0)
(0.73 0.1 0.0)
(0.53 0.63 0.0)
(0.73 0.82 0.0)
(0.65 0.79 0.0)
(0.66 0.14 0.0)
(0.69 1.31 0.0)
(0.62 1.8 0.0)
(0.43 0.8 0.0)
(0.03 1.62 0.0)
(0.02 0.82 0.0)
(0.67 0.34 0.0)
(0.98 0.38 0.0)
(0.63 0.65 0.0)
(0.18 1.37 0.0)
(0.19 0.77 0.0)
(0.91 0.05 0.0)
(0.12 1.58 0.0)
(0.92 0.5 0.0)
(0.9 0.61 0.0)
(0.05 0.8 0.0)
(0.53 1.31 0.0)
(0.97 0.79 0.0)
(0.62 1.0 0.0)
(0.48 0.39 0.0)
(0.64 0.56 0.0)
(0.39 0.24 0.0)
(0.08 0.09 0.0)
(0.71 1.11 0.0)
(0.35 1.43 0.0)
(0.8 1.37 0.0)
(0.42 1.66 0.0)
(0.04 1.56 0.0)
(0.09 1.21 0.0)
(0.59 0.29 0.0)
(0.33 0.54 0.0)
(0.59 1.28 0.0)
(0.59 1.77 0.0)
(0.61 1.19 0.0)
(0.9 1.13 0.0)
(0.11 0.47 0.0)
(0.8 0.21 0.0)
(0.83 0.73 0.0)
(0.84 1.52 0.0)
(0.46 1.55 0.0)
(0.22 1.56 0.0)
(0.98 1.61 0.0)
(0.13 1.67 0.0)
(0.2 1.32 0.0)
(0.46 1.8 0.0)
(0.58 0.71 0.0)
(0.19 1.67 0.0)
(0.73 0.24 0.0)
(0.49 0.71 0.0)
(0.06 0.89 0.0)
(0.5 1.92 0.0)
(0.7 0.62 0.0)
(0.99 0.78 0.0)
(0.19 1.57 0.0)
(0.55 1.71 0.0)
(0.35 0.05 0.0)
(0.44 0.67 0.0)
(0.07 1.43 0.0)
(0.27 0.21 0.0)
(0.24 1.53 0.0)
(0.4 1.64 0.0)
(0.4 1.54 0.0)
(0.08 0.87 0.0)
(0.4 0.38 0.0)
(0.23 0.09 0.0)
(0.8 1.05 0.0)
(0.13 0.72 0.0)
(0.07 0.33 0.0)
(0.67 1.3 0.0)
(0.13 0.6 0.0)
(0.05 0.54 0.0)
(0.22 1.1 0.0)
(0.31 0.5 0.0)
(0.4 0.04 0.0)
(0.51 0.12 0.0)
(0.49 0.05 0.0)
(0.05 0.15 0.0)
(0.23 1.41 0.0)
(0.62 1.05 0.0)
(0.79 1.29 0.0)
(0.4 0.23 0.0)
(0.83 0.75 0.0)
(0.24 0.71 0.0)
(0.52 0.2 0.0)
(0.05 1.56 0.0)
(0.23 1.14 0.0)
(0.51 0.23 0.0)
(0.32 0.64 0.0)
(0.82 0.56 0.0)
(0.62 1.81 0.0)
(0.27 1.7 0.0)
(0.76 1.92 0.0)
(0.15 1.4 0.0)
(0.89 1.48 0.0)
(0.6 0.32 0.0)
(0.61 1.0 0.0)
(0.5 1.06 0.0)
(0.78 1.27 0.0)
(0.58 0.98 0.0)
(0.24 0.36 0.0)
(0.08 0.36 0.0)
(0.0 1.74 0.0)
(0.55 0.25 0.0)
(0.91 1.64 0.0)
(0.9 1.17 0.0)
(0.8 1.08 0.0)
(0.38 0.15 0.0)
(0.51 1.34 0.0)
(0.76 0.99 0.0)
(0.74 0.45 0.0)
(0.65 0.16 0.0)
(0.86 1.41 0.0)
(0.89 0.35 0.0)
(0.46 0.89 0.0)
(0.28 1.01 0.0)
(0.25 0.15 0.0)
(0.22 0.62 0.0)
(0.85 0.43 0.0)
(0.15 0.41 0.0)
(0.71 1.87 0.0)
(0.11 0.66 0.0)
(0.01 0.86 0.0)
(0.75 0.47 0.0)
(0.19 1.95 0.0)
(0.69 0.2 0.0)
(0.14 0.15 0.0)
(0.99 1.43 0.0)
(0.26 0.02 0.0)
(0.79 1.54 0.0)
(0.69 0.64 0.0)
(0.54 1.87 0.0)
(0.68 1.56 0.0)
(0.99 0.15 0.0)
(0.48 0.87 0.0)
(0.53 0.53 0.0)
(0.26 0.4 0.0)
(0.73 0.64 0.0)
(0.32 1.41 0.0)
(0.47 0.9 0.0)
(0.27 1.59 0.0)
(0.4 0.08 0.0)
(0.17 1.26 0.0)
(0.67 0.93 0.0)
(0.93 0.28 0.0)
(0.7 0.75 0.0)
(0.64 0.06 0.0)
(0.2 0.95 0.0)
(0.69 0.89 0.0)
(0.15 1.98 0.0)
(0.33 1.17 0.0)
(0.03 0.71 0.0)
(0.51 1.82 0.0)
(0.92 1.84 0.0)
(0.72 1.78 0.0)
(0.28 0.79 0.0)
(0.32 1.39 0.0)
(0.79 1.29 0.0)
(0.72 1.93 0.0)
(0.88 0.65 0.0)
(0.83 1.71 0.0)
(0.17 0.67 0.0)
(0.3 1.41 0.0)
(0.44 1.09 0.0)
(0.22 0.09 0.0)
(0.95 0.09 0.0)
(0.42 0.03 0.0)
(0.7 0.42 0.0)
(0.81 0.75 0.0)
(0.36 1.27 0.0)
(0.12 0.3 0.0)
(0.86 1.4 0.0)
(0.18 1.83 0.0)
(0.63 0.31 0.0)
(0.62 1.88 0.0)
(0.35 0.76 0.0)
(0.33 0.32 0.0)
(0.12 0.18 0.0)
(0.94 1.96 0.0)
(0.48 1.04 0.0)
(0.98 1.42 0.0)
(0.5 0.52 0.0)
(0.99 1.65 0.0)
(0.5 0.86 0.0)
(0.57 1.28 0.0)
(0.08 1.57 0.0)
(0.24 0.56 0.0)
(0.78 0.32 0.0)
(0.75 0.29 0.0)
(0.55 0.99 0.0)
(0.06 1.69 0.0)
(0.71 1.39 0.0)
(0.94 1.58 0.0)
(0.8 0.59 0.0)
(0.73 1.74 0.0)
(0.26 0.19 0.0)
(0.07 1.14 0.0)
(0.59 1.25 0.0)
(0.0 1.28 0.0)
(0.93 0.55 0.0)
(0.34 0.39 0.0)
(0.88 0.26 0.0)
(0.42 0.73 0.0)
(0.13 1.93 0.0)
(0.9 0.81 0.0)
(0.62 1.67 0.0)
(0.36 1.25 0.0)
(0.51 0.72 0.0)
(0.47 0.69 0.0)
(0.29 1.08 0.0)
(0.87 1.68 0.0)
(0.02 1.39 0.0)
(0.98 0.76 0.0)
(0.56 0.27 0.0)
(0.29 0.71 0.0)
(0.88 0.98 0.0)
(0.14 1.01 0.0)
(0.63 0.22 0.0)
(0.72 0.64 0.0)
(0.42 1.26 0.0)
(0.06 1.53 0.0)
(0.13 1.41 0.0)
(0.5 0.96 0.0)
(0.43 0.91 0.0)
(0.06 0.56 0.0)
(0.89 1.89 0.0)
(0.95 0.67 0.0)
(0.85 1.29 0.0)
(0.46 1.36 0.0)
(0.92 1.98 0.0)
(0.8 1.97 0.0)
(0.24 0.19 0.0)
(0.89 1.4 0.0)
(0.36 1.7 0.0)
(0.65 1.88 0.0)
(0.12 0.79 0.0)
(0.62 0.8 0.0)
(0.4 1.76 0.0)
(0.12 1.21 0.0)
(0.02 0.12 0.0)
(0.13 0.01 0.0)
(0.58 1.07 0.0)
(0.33 0.04 0.0)
(0.65 0.27 0.0)
(0.76 1.45 0.0)
(0.68 0.88 0.0)
(0.64 0.05 0.0)
(0.85 0.24 0.0)
(0.43 1.19 0.0)
(0.24 1.75 0.0)
(0.12 0.19 0.0)
(0.33 0.17 0.0)
(0.04 0.73 0.0)
(0.12 1.14 0.0)
(0.84 0.9 0.0)
(0.05 1.07 0.0)
(0.66 1.09 0.0)
(0.0 1.31 0.0)
(0.61 1.36 0.0)
(0.09 1.37 0.0)
(0.34 1.05 0.0)
(0.24 0.49 0.0)
(0.3 2.0 0.0)
(0.45 0.85 0.0)
(0.78 1.66 0.0)
(0.1 0.64 0.0)
(0.08 1.69 0.0)
(0.37 0.65 0.0)
(0.32 1.49 0.0)
(0.45 1.72 0.0)
(0.73 0.57 0.0)
(0.04 1.95 0.0)
(0.69 0.4 0.0)
(0.2 0.6 0.0)
(0.78 0.74 0.0)
(0.66 0.54 0.0)
(0.85 0.9 0.0)
(0.05 2.0 0.0)
(0.23 0.55 0.0)
(0.92 1.51 0.0)
(0.24 1.52 0.0)
(0.88 0.34 0.0)
(0.3 1.67 0.0)
(0.04 1.29 0.0)
(0.23 0.8 0.0)
(0.06 1.47 0.0)
(0.4 0.26 0.0)
(0.91 1.88 0.0)
(0.17 1.82 0.0)
(0.95 0.16 0.0)
(0.93 0.93 0.0)
(0.63 1.21 0.0)
(0.46 1.16 0.0)
(0.6 1.38 0.0)
(0.46 0.26 0.0)
(0.03 1.34 0.0)
(0.25 1.42 0.0)
(0.24 1.06 0.0)
(0.77 1.28 0.0)
(0.72 0.7 0.0)
(0.29 0.26 0.0)
(0.23 0.78 0.0)
(0.93 0.43 0.0)
(0.06 1.23 0.0)
(0.12 1.6 0.0)
(0.02 1.66 0.0)
(0.53 0.85 0.0)
(0.67 0.86 0.0)
(0.76 0.66 0.0)
(0.69 1.42 0.0)
(0.09 1.78 0.0)
(0.21 0.1 0.0)
(0.48 1.13 0.0)
(0.26 0.4 0.0)
(0.05 1.82 0.0)
(0.69 0.55 0.0)
(0.11 1.0 0.0)
(0.2 1.06 0.0)
(0.36 1.48 0.0)
(0.95 1.26 0.0)
(0.83 1.59 0.0)
(0.54 1.48 0.0)
(0.54 1.53 0.0)
(0.07 0.49 0.0)
(0.85 1.96 0.0)
(0.27 1.65 0.0)
(0.39 1.93 0.0)
(0.59 1.09 0.0)
(0.32 1.1 0.0)
(0.38 1.33 0.0)
(0.27 1.43 0.0)
(0.97 0.87 0.0)
(0.47 0.29 0.0)
(0.69 1.56 0.0)
(0.05 0.06 0.0)
(0.14 0.85 0.0)
(0.62 1.63 0.0)
(0.26 0.21 0.0)
(0.08 0.89 0.0)
(0.39 1.4 0.0)
(0.32 0.76 0.0)
(0.33 1.99 0.0)
(0.9 0.13 0.0)
(0.46 1.88 0.0)
(0.26 0.85 0.0)
(0.03 0.59 0.0)
(0.32 0.39 0.0)
(0.15 0.26 0.0)
(0.16 1.62 0.0)
(0.51 0.91 0.0)
(0.17 0.85 0.0)
(0.27 0.84 0.0)
(0.97 0.67 0.0)
(0.73 1.19 0.0)
(0.18 0.9 0.0)
(0.1 1.61 0.0)
(0.08 1.7 0.0)
(0.8 1.71 0.0)
(0.25 0.91 0.0)
(0.07 0.75 0.0)
(0.56 1.66 0.0)
(0.4 0.58 0.0)
(0.87 0.53 0.0)
(0.71 1.01 0.0)
(0.17 1.28 0.0)
(0.05 1.19 0.0)
(0.37 0.76 0.0)
(0.23 0.93 0.0)
(0.84 0.78 0.0)
(0.9 1.58 0.0)
(0.72 0.21 0.0)
(0.3 1.49 0.0)
(0.96 1.13 0.0)
(0.62 1.64 0.0)
(0.3 0.09 0.0)
(0.39 0.66 0.0)
(0.02 1.92 0.0)
(0.87 0.34 0.0)
(0.18 1.77 0.0)
(0.04 0.15 0.0)
(0.75 1.34 0.0)
(0.27 0.19 0.0)
(0.89 1.47 0.0)
(0.51 0.52 0.0)
(0.32 1.91 0.0)
(0.66 1.85 0.0)
(0.04 1.38 0.0)
(0.73 1.23 0.0)
(0.47 0.92 0.0)
(0.96 1.52 0.0)
(0.74 0.04 0.0)
(0.34 0.4 0.0)
(0.46 1.46 0.0)
(0.63 0.99 0.0)
(0.53 0.18 0.0)
(0.38 1.87 0.0)
(0.06 0.37 0.0)
(0.91 0.67 0.0)
(0.85 1.02 0.0)
(0.17 0.12 0.0)
(0.88 1.86 0.0)
(0.13 0.99 0.0)
(0.64 1.65 0.0)
(0.08 1.06 0.0)
(0.46 1.18 0.0)
(0.6 0.83 0.0)
(0.31 0.77 0.0)
(0.13 0.51 0.0)
(0.93 0.45 0.0)
(0.16 1.37 0.0)
(0.04 1.97 0.0)
(0.86 1.79 0.0)
(0.6 1.34 0.0)
(0.38 1.29 0.0)
(0.46 0.22 0.0)
(0.59 0.16 0.0)
(0.83 0.38 0.0)
(0.56 0.25 0.0)
(0.2 1.74 0.0)
(0.64 1.55 0.0)
(0.58 1.24 0.0)
(0.7 1.81 0.0)
(0.56 0.36 0.0)
(0.27 0.24 0.0)
(0.54 0.73 0.0)
(0.42 1.57 0.0)
(0.49 0.13 0.0)
(0.35 1.22 0.0)
(0.83 0.35 0.0)
(0.07 1.63 0.0)
(0.04 1.29 0.0)
(0.64 0.09 0.0)
(0.32 1.41 0.0)
(0.99 1.33 0.0)
(0.4 1.17 0.0)
(0.9 0.6 0.0)
(0.64 0.3 0.0)
(0.57 0.72 0.0)
(0.13 1.44 0.0)
(0.59 0.95 0.0)
(0.35 0.07 0.0)
(0.96 1.54 0.0)
(0.72 1.99 0.0)
(0.26 0.02 0.0)
(0.79 1.53 0.0)
(0.97 0.91 0.0)
(0.08 0.62 0.0)
(0.75 1.8 0.0)
(0.44 0.28 0.0)
(0.49 0.87 0.0)
(0.99 1.95 0.0)
(0.8 1.06 0.0)
(0.07 0.81 0.0)
(0.19 1.16 0.0)
(0.52 0.89 0.0)
(0.9 0.89 0.0)
(0.51 0.1 0.0)
(0.64 0.9 0.0)
(0.47 1.25 0.0)
(0.2 0.14 0.0)
(0.17 0.48 0.0)
(0.64 1.84 0.0)
(0.09 1.88 0.0)
(0.69 1.06 0.0)
(1.0 0.23 0.0)
(0.16 0.4 0.0)
(0.61 1.16 0.0)
(0.8 0.05 0.0)
(0.57 1.47 0.0)
(0.76 0.99 0.0)
(0.76 0.89 0.0)
(0.69 0.58 0.0)
(0.41 0.67 0.0)
(0.67 0.2 0.0)
(0.16 1.54 0.0)
(0.74 0.84 0.0)
(0.49 1.11 0.0)
(0.3 0.21 0.0)
(0.13 1.87 0.0)
(0.1 1.29 0.0)
(0.68 1.86 0.0)
(0.45 0.84 0.0)
(0.23 0.12 0.0)
(0.73 0.07 0.0)
(0.42 1.93 0.0)
(0.7 1.64 0.0)
(0.51 0.11 0.0)
(0.06 1.67 0.0)
(0.85 0.39 0.0)
(0.87 1.31 0.0)
(0.81 1.73 0.0)
(0.51 0.52 0.0)
(0.41 0.73 0.0)
(0.07 0.58 0.0)
(0.64 1.59 0.0)
(0.98 1.65 0.0)
(0.45 1.52 0.0)
(0.38 1.83 0.0)
(0.88 0.99 0.0)
(0.26 0.07 0.0)
(0.45 0.3 0.0)
(0.29 0.77 0.0)
(0.28 0.82 0.0)
(0.44 1.21 0.0)
(0.93 1.3 0.0)
(0.01 0.57 0.0)
(0.99 1.57 0.0)
(0.49 0.62 0.0)
(0.72 1.8 0.0)
(0.2 0.56 0.0)
(0.3 1.04 0.0)
(0.84 1.52 0.0)
(0.79 1.02 0.0)
(0.49 0.06 0.0)
(0.63 1.3 0.0)
(0.89 1.0 0.0)
(0.92 1.94 0.0)
(0.11 0.51 0.0)
(0.71 0.46 0.0)
(0.7 1.53 0.0)
(0.35 1.09 0.0)
(0.69 1.04 0.0)
(0.43 0.42 0.0)
(0.14 1.47 0.0)
(0.46 1.39 0.0)
(0.57 0.23 0.0)
(0.69 1.63 0.0)
(0.78 1.77 0.0)
(0.54 1.28 0.0)
(0.55 0.26 0.0)
(0.45 1.47 0.0)
(0.42 1.8 0.0)
(0.59 1.75 0.0)
(0.23 0.76 0.0)
(0.54 1.19 0.0)
(0.15 0.21 0.0)
(0.22 1.02 0.0)
(0.74 1.21 0.0)
(0.05 1.54 0.0)
(0.47 0.34 0.0)
(0.83 1.7 0.0)
(0.54 2.0 0.0)
(0.85 1.08 0.0)
(0.12 1.0 0.0)
(0.68 1.96 0.0)
(0.67 0.68 0.0)
(0.42 0.1 0.0)
(0.32 0.57 0.0)
(0.63 1.3 0.0)
(0.85 0.82 0.0)
(0.22 0.57 0.0)
(0.21 1.58 0.0)
(0.47 0.17 0.0)
(0.25 0.76 0.0)
(0.87 0.89 0.0)
(0.6 0.99 0.0)
(0.94 1.61 0.0)
(0.07 0.19 0.0)
(0.82 1.6 0.0)
(0.85 0.92 0.0)
(0.36 1.49 0.0)
(0.27 0.13 0.0)
(0.38 1.38 0.0)
(0.6 0.4 0.0)
(0.45 1.59 0.0)
(0.59 0.88 0.0)
(0.61 0.09 0.0)
(0.63 0.92 0.0)
(0.94 1.0 0.0)
(0.98 1.29 0.0)
(0.98 1.39 0.0)
(0.69 1.92 0.0)
(0.4 1.92 0.0)
(0.33 0.36 0.0)
(0.47 1.45 0.0)
(0.83 1.62 0.0)
(0.23 0.17 0.0)
(0.6 1.95 0.0)
(0.46 1.9 0.0)
(1.0 1.43 0.0)
(0.49 0.41 0.0)
(0.67 1.26 0.0)
(0.99 0.58 0.0)
(0.94 1.17 0.0)
(0.1 0.86 0.0)
(0.46 1.21 0.0)
(0.4 1.55 0.0)
(0.13 0.37 0.0)
(0.65 1.81 0.0)
(0.46 0.3 0.0)
(0.44 1.51 0.0)
(0.41 0.41 0.0)
(0.19 1.62 0.0)
(0.79 1.91 0.0)
(0.41 1.93 0.0)
(0.22 1.27 0.0)
(0.93 0.68 0.0)
(0.97 0.23 0.0)
(0.49 0.87 0.0)
(0.33 1.21 0.0)
(0.57 1.56 0.0)
(0.04 0.9 0.0)
(0.39 0.47 0.0)
(0.59 1.0 0.0)
(0.82 0.62 0.0)
(0.86 1.45 0.0)
(0.99 0.31 0.0)
(0.17 0.74 0.0)
(0.31 1.92 0.0)
(0.68 1.94 0.0)
(0.91 0.42 0.0)
(0.3 0.97 0.0)
(0.69 0.1 0.0)
(0.45 1.72 0.0)
(0.2 0.1 0.0)
(0.19 0.55 0.0)
(0.2 0.03 0.0)
(0.95 0.11 0.0)
(0.77 1.58 0.0)
(0.97 1.2 0.0)
(0.92 1.03 0.0)
(0.93 0.74 0.0)
(0.42 0.66 0.0)
(0.29 0.9 0.0)
(0.9 0.41 0.0)
(0.88 0.69 0.0)
(0.17 0.28 0.0)
(0.68 1.51 0.0)
(0.7 1.88 0.0)
(0.4 1.61 0.0)
(0.57 1.69 0.0)
(0.88 0.8 0.0)
(0.82 1.03 0.0)
(0.17 0.79 0.0)
(0.07 0.76 0.0)
(0.82 0.17 0.0)
(0.86 0.42 0.0)
(0.67 0.54 0.0)
(0.37 0.93 0.0)
(0.1 0.45 0.0)
(0.81 1.53 0.0)
(0.15 1.89 0.0)
(0.0 1.99 0.0)
(0.44 1.19 0.0)
(0.1 1.08 0.0)
(0.71 1.38 0.0)
(0.33 1.84 0.0)
(0.39 1.04 0.0)
(0.88 0.22 0.0)
(0.43 1.5 0.0)
(0.61 0.51 0.0)
(0.31 1.07 0.0)
(0.76 1.15 0.0)
(0.9 0.21 0.0)
(0.9 1.27 0.0)
(0.74 1.64 0.0)
(0.1 1.34 0.0)
(0.04 0.37 0.0)
(0.37 1.91 0.0)
(0.51 0.01 0.0)
(0.46 1.69 0.0)
(0.83 0.05 0.0)
(0.32 0.69 0.0)
(0.14 0.94 0.0)
(0.76 1.03 0.0)
(0.72 1.94 0.0)
(0.69 0.07 0.0)
(0.71 0.65 0.0)
(0.89 1.62 0.0)
(0.28 1.82 0.0)
(0.45 1.83 0.0)
(0.08 0.62 0.0)
(0.15 0.96 0.0)
(0.97 0.39 0.0)
(0.08 0.54 0.0)
(0.08 1.19 0.0)
(0.46 0.84 0.0)
(0.62 0.05 0.0)
(0.26 1.23 0.0)
(0.09 0.42 0.0)
(0.65 1.96 0.0)
(0.31 0.88 0.0)
(0.85 0.42 0.0)
(0.56 0.19 0.0)
(0.15 1.46 0.0)
(0.45 0.77 0.0)
(0.06 0.02 0.0)
(0.25 1.19 0.0)
(0.17 1.59 0.0)
(0.11 1.88 0.0)
(0.32 0.94 0.0)
(0.2 1.39 0.0)
(0.37 0.74 0.0)
(0.73 1.24 0.0)
(0.43 1.5 0.0)
(0.05 1.01 0.0)
(0.17 1.57 0.0)
(0.73 0.41 0.0)
(0.63 0.87 0.0)
(0.61 1.9 0.0)
(0.58 1.97 0.0)
(0.49 0.84 0.0)
(0.82 0.91 0.0)
(0.52 1.29 0.0)
(0.2 0.82 0.0)
(0.91 0.65 0.0)
(1.0 1.68 0.0)
(0.36 1.7 0.0)
(0.52 1.43 0.0)
(0.06 0.74 0.0)
(0.02 0.34 0.0)
(0.35 0.57 0.0)
(0.2 1.16 0.0)
(0.19 1.73 0.0)
(0.55 0.5 0.0)
(0.09 1.77 0.0)
(0.16 0.95 0.0)
(0.43 0.14 0.0)
(0.75 1.07 0.0)
(0.67 1.74 0.0)
(0.73 1.69 0.0)
(0.25 0.46 0.0)
(0.47 1.29 0.0)
(0.6 0.02 0.0)
(0.19 1.39 0.0)
(0.11 0.66 0.0)
(0.29 0.81 0.0)
(0.13 0.88 0.0)
(0.88 0.89 0.0)
(0.65 1.53 0.0)
(0.11 1.66 0.0)
(0.05 1.75 0.0)
(0.41 0.28 0.0)
(0.08 0.33 0.0)
(0.83 1.59 0.0)
(0.05 0.51 0.0)
(0.96 1.82 0.0)
(0.72 1.32 0.0)
(0.16 0.85 0.0)
(0.56 0.1 0.0)
(0.28 0.58 0.0)
(0.49 0.47 0.0)
(0.51 0.07 0.0)
(0.79 1.58 0.0)
(0.32 1.29 0.0)
(0.21 0.11 0.0)
(0.73 1.34 0.0)
(0.67 0.82 0.0)
(0.07 0.22 0.0)
(0.08 1.7 0.0)
(0.79 1.45 0.0)
(0.28 1.37 0.0)
(0.92 1.8 0.0)
(0.15 1.35 0.0)
(0.41 1.39 0.0)
(0.21 0.53 0.0)
(0.06 1.29 0.0)
(0.31 0.98 0.0)
(0.12 1.04 0.0)
(0.9 0.28 0.0)
(0.36 0.29 0.0)
(0.75 0.64 0.0)
(0.14 0.38 0.0)
(0.91 0.74 0.0)
(0.46 0.51 0.0)
(0.63 0.56 0.0)
(0.08 1.05 0.0)
(0.68 0.56 0.0)
(0.53 1.61 0.0)
(0.29 0.26 0.0)
(0.2 1.17 0.0)
(0.26 0.22 0.0)
(0.77 0.4 0.0)
(0.16 1.26 0.0)
(0.52 0.37 0.0)
(0.62 0.02 0.0)
(0.18 0.39 0.0)
(0.01 1.71 0.0)
(0.51 0.41 0.0)
(0.53 1.06 0.0)
(0.85 1.74 0.0)
(0.62 1.33 0.0)
(0.67 0.04 0.0)
(0.39 1.76 0.0)
(0.77 0.63 0.0)
(0.1 0.8 0.0)
(0.24 0.2 0.0)
(0.73 0.92 0.0)
(0.15 1.72 0.0)
(0.23 1.78 0.0)
(0.49 1.21 0.0)
(0.28 0.2 0.0)
(0.53 1.48 0.0)
(0.95 0.78 0.0)
(0.03 1.29 0.0)
(0.29 1.36 0.0)
(0.1 1.39 0.0)
(0.78 0.93 0.0)
(0.13 0.93 0.0)
(0.7 1.38 0.0)
(0.42 0.46 0.0)
(0.19 1.44 0.0)
(0.18 1.68 0.0)
(0.5 0.1 0.0)
(0.61 1.48 0.0)
(0.26 1.56 0.0)
(0.72 0.15 0.0)
(0.8 0.94 0.0)
(0.36 0.61 0.0)
(0.44 0.01 0.0)
(0.51 1.06 0.0)
(0.68 0.05 0.0)
(0.22 1.58 0.0)
(0.7 1.74 0.0)
(0.97 0.74 0.0)
(0.81 1.81 0.0)
(0.1 0.11 0.0)
(0.83 1.11 0.0)
(0.88 0.27 0.0)
(0.7 1.86 0.0)
(0.24 1.77 0.0)
(0.55 0.31 0.0)
(0.79 0.04 0.0)
(0.45 0.63 0.0)
(1.0 1.25 0.0)
(0.95 0.68 0.0)
(0.13 1.35 0.0)
(0.29 0.03 0.0)
(0.69 1.62 0.0)
(0.6 1.44 0.0)
(0.47 0.72 0.0)
(0.02 1.06 0.0)
(0.77 0.19 0.0)
(0.82 0.87 0.0)
(0.35 0.04 0.0)
(0.35 1.97 0.0)
(0.84 1.57 0.0)
(0.98 1.09 0.0)
(0.75 1.63 0.0)
(0.5 1.05 0.0)
(0.41 1.23 0.0)
(0.71 0.24 0.0)
(0.6 1.6 0.0)
(0.63 1.44 0.0)
(0.45 0.07 0.0)
(0.34 0.57 0.0)
(0.62 1.38 0.0)
(0.09 0.15 0.0)
(0.78 1.05 0.0)
(0.26 1.28 0.0)
(0.97 0.47 0.0)
(0.4 1.65 0.0)
(0.67 0.06 0.0)
(0.23 1.09 0.0)
(0.12 1.99 0.0)
(0.22 0.59 0.0)
(0.09 1.58 0.0)
(0.58 1.06 0.0)
(0.72 0.42 0.0)
(0.97 0.21 0.0)