/*--------------------------------*- C++ -*----------------------------------*\
| =========                 |                                                 |
| \\      /  F ield         | OpenFOAM: The Open Source CFD Toolbox           |
|  \\    /   O peration     | Version:  v2012                                 |
|   \\  /    A nd           | Website:  www.openfoam.com                      |
|    \\/     M anipulation  |                                                 |
\*---------------------------------------------------------------------------*/
FoamFile
{
    version     2.0;
    format      ascii;
    class       dictionary;
    object      blockMeshDict;
}
// * * * * * * * * * * * * * * * * * * * * * * * * * * * * * * * * * * * * * //

scale 1;


vertices
(
    (0 0 -0.05)      // Vertex 0
    (1 0 -0.05)      // Vertex 1
    (0.6 -1 -0.05)    // Vertex 2
    (0.4 -1 -0.05)    // Vertex 3
    (0 0 0.05)      // Vertex 4 
    (1 0 0.05)      // Vertex 5 
    (0.6 -1 0.05)    // Vertex 6 
    (0.4 -1 0.05)    // Vertex 7
    (0 2 -0.05) // 8
    (1 2 -0.05) // 9
    (0 2 0.05) // 10
    (1 2 0.05) // 11
);

blocks
(
    hex (0 3 2 1 4 7 6 5) (50 50 1) simpleGrading (1 1 1)
    hex (0 1 9 8 4 5 11 10) (50 100 1) simpleGrading (1 1 1)
);

edges
(
);

boundary
(
    walls
    {
        type wall;
        faces
        (
            (3 7 4 0)
            (0 4 10 8)
	    (9 1 5 11)
	    (5 1 2 6)
	    (2 3 7 6)
        );
    }
    wallsLid
    {
        type wall;
        faces
        (
            (10 11 9 8)
        );
    }
    frontAndBack
    {
        type empty;
        faces
        (
            (3 0 1 2)
	    (0 8 9 1)
	    (7 4 5 6)
	    (4 10 11 5)
        );
    }
);

mergePatchPairs
(
);

// ************************************************************************* //
